Version 4
SHEET 1 1632 792
WIRE 544 -144 480 -144
WIRE 688 -144 624 -144
WIRE 480 -64 480 -144
WIRE 544 -64 480 -64
WIRE 688 -64 688 -144
WIRE 688 -64 608 -64
WIRE 480 -16 480 -64
WIRE 480 -16 416 -16
WIRE 1024 -16 944 -16
WIRE 1168 -16 1088 -16
WIRE 480 32 480 -16
WIRE 512 32 480 32
WIRE 688 64 688 -64
WIRE 688 64 656 64
WIRE 752 64 688 64
WIRE 944 64 944 -16
WIRE 1024 64 944 64
WIRE 1168 64 1168 -16
WIRE 1168 64 1104 64
WIRE 512 96 496 96
WIRE 160 112 -16 112
WIRE 336 112 320 112
WIRE 352 112 336 112
WIRE 464 112 432 112
WIRE 480 112 464 112
WIRE 496 112 496 96
WIRE 496 112 480 112
WIRE 336 192 336 112
WIRE 832 192 832 64
WIRE 832 208 832 192
WIRE 1024 208 832 208
WIRE 1168 224 1168 64
WIRE 1248 224 1168 224
WIRE 1344 224 1248 224
WIRE 1456 224 1424 224
WIRE 1536 224 1456 224
WIRE 944 240 944 64
WIRE 1024 240 944 240
WIRE 1168 256 1168 224
WIRE 1168 256 1088 256
WIRE 416 304 416 -16
WIRE 336 320 336 272
WIRE 336 320 320 320
WIRE 544 352 480 352
WIRE 688 352 608 352
WIRE 480 384 480 352
WIRE 480 384 416 384
WIRE 480 432 480 384
WIRE 544 432 480 432
WIRE 688 432 688 352
WIRE 688 432 624 432
WIRE 144 528 -16 528
WIRE 320 528 320 496
WIRE 320 528 304 528
WIRE 336 528 320 528
WIRE 432 528 416 528
WIRE 480 528 480 432
WIRE 512 528 480 528
WIRE 688 560 688 432
WIRE 688 560 656 560
WIRE 736 560 688 560
WIRE 944 560 944 240
WIRE 944 560 816 560
WIRE 432 592 432 528
WIRE 496 592 432 592
WIRE 512 592 496 592
FLAG -16 192 0
FLAG -16 608 0
FLAG 0 -48 0
FLAG 272 -128 0
FLAG 0 -128 2.5V
FLAG 272 -48 -2.5V
FLAG 1248 304 0
FLAG 1536 224 out
IOPIN 1536 224 Out
FLAG 464 176 0
FLAG 432 656 0
FLAG 336 320 0
FLAG 320 416 0
FLAG 480 112 IN1
IOPIN 480 112 In
FLAG 496 592 IN2
IOPIN 496 592 In
FLAG 752 192 0
FLAG 1456 288 0
FLAG 544 -16 2.5V
FLAG 544 480 2.5V
FLAG 544 144 -2.5V
FLAG 544 640 -2.5V
FLAG 1088 192 2.5V
FLAG 1088 224 -2.5V
SYMBOL voltage -16 96 R0
WINDOW 123 24 124 Left 2
WINDOW 39 0 0 Left 0
SYMATTR InstName V1
SYMATTR Value SINE(250 9 10000)
SYMBOL voltage -16 512 R0
WINDOW 123 0 0 Left 0
WINDOW 39 0 0 Left 0
SYMATTR InstName V2
SYMATTR Value 240
SYMBOL res 256 96 R90
WINDOW 0 0 56 VBottom 2
WINDOW 3 32 56 VTop 2
SYMATTR InstName R1
SYMATTR Value 5Meg
SYMBOL res 240 512 R90
WINDOW 0 0 56 VBottom 2
WINDOW 3 32 56 VTop 2
SYMATTR InstName R2
SYMATTR Value 5Meg
SYMBOL OpAmps\\LTC6268 544 64 R0
SYMATTR InstName U1
SYMBOL OpAmps\\LTC6268 544 560 R0
SYMATTR InstName U2
SYMBOL voltage 0 -144 R0
SYMATTR InstName V3
SYMATTR Value 2.5
SYMBOL voltage 272 -144 R0
SYMATTR InstName V4
SYMATTR Value 2.5
SYMBOL res 304 400 R0
SYMATTR InstName R3
SYMATTR Value 10020
SYMBOL res 320 176 R0
SYMATTR InstName R4
SYMATTR Value 10020
SYMBOL res 640 -160 R90
WINDOW 0 0 56 VBottom 2
WINDOW 3 32 56 VTop 2
SYMATTR InstName R5
SYMATTR Value 470
SYMBOL res 640 416 R90
WINDOW 0 0 56 VBottom 2
WINDOW 3 32 56 VTop 2
SYMATTR InstName R6
SYMATTR Value 470
SYMBOL cap 608 336 R90
WINDOW 0 0 32 VBottom 2
WINDOW 3 32 32 VTop 2
SYMATTR InstName C1
SYMATTR Value 0.25p
SYMBOL cap 608 -80 R90
WINDOW 0 0 32 VBottom 2
WINDOW 3 32 32 VTop 2
SYMATTR InstName C2
SYMATTR Value 0.25p
SYMBOL res 848 48 R90
WINDOW 0 0 56 VBottom 2
WINDOW 3 32 56 VTop 2
SYMATTR InstName R7
SYMATTR Value 348
SYMBOL res 832 544 R90
WINDOW 0 0 56 VBottom 2
WINDOW 3 32 56 VTop 2
SYMATTR InstName R8
SYMATTR Value 348
SYMBOL res 1120 48 R90
WINDOW 0 0 56 VBottom 2
WINDOW 3 32 56 VTop 2
SYMATTR InstName R9
SYMATTR Value 348
SYMBOL cap 1088 -32 R90
WINDOW 0 0 32 VBottom 2
WINDOW 3 32 32 VTop 2
SYMATTR InstName C3
SYMATTR Value 0.8p
SYMBOL res 1232 208 R0
SYMATTR InstName R10
SYMATTR Value 1k
SYMBOL res 336 96 R90
WINDOW 0 0 56 VBottom 2
WINDOW 3 32 56 VTop 2
SYMATTR InstName R11
SYMATTR Value 150
SYMBOL res 448 96 R90
WINDOW 0 0 56 VBottom 2
WINDOW 3 32 56 VTop 2
SYMATTR InstName R12
SYMATTR Value 150
SYMBOL cap 448 112 R0
SYMATTR InstName C4
SYMATTR Value 6.8p
SYMBOL res 320 512 R90
WINDOW 0 0 56 VBottom 2
WINDOW 3 32 56 VTop 2
SYMATTR InstName R13
SYMATTR Value 150
SYMBOL res 432 512 R90
WINDOW 0 0 56 VBottom 2
WINDOW 3 32 56 VTop 2
SYMATTR InstName R14
SYMATTR Value 150
SYMBOL cap 416 592 R0
SYMATTR InstName C5
SYMATTR Value 6.8p
SYMBOL res 848 176 R90
WINDOW 0 0 56 VBottom 2
WINDOW 3 32 56 VTop 2
SYMATTR InstName R16
SYMATTR Value 348
SYMBOL res 400 288 R0
SYMATTR InstName R15
SYMATTR Value 16
SYMBOL res 1440 208 R90
WINDOW 0 0 56 VBottom 2
WINDOW 3 32 56 VTop 2
SYMATTR InstName R17
SYMATTR Value 470
SYMBOL cap 1440 224 R0
SYMATTR InstName C6
SYMATTR Value 470µ
SYMBOL LMH6611 1056 224 R0
SYMATTR InstName U3
TEXT -48 728 Left 2 ;.dc V1 210 270 1
TEXT -56 776 Left 2 ;.noise V(out) V1  lin 101 0.1 1k
TEXT -48 696 Left 2 !.tran 0 10m 0 1u
